<?xml version="1.0"?>
<interfaceDefinition>
  <node name="policy">
    <children>
      <tagNode name="route6" owner="${vyos_conf_scripts_dir}/policy_route.py">
        <properties>
          <help>Policy route rule set name for IPv6</help>
          <constraint>
            <regex>[a-zA-Z0-9][\w\-\.]*</regex>
          </constraint>
          <priority>201</priority>
        </properties>
        <children>
          <!-- include start from generic-description.xml.i -->
          <leafNode name="description">
            <properties>
              <help>Description</help>
              <valueHelp>
                <format>txt</format>
                <description>Description</description>
              </valueHelp>
              <constraint>
                <regex>[[:ascii:]]{0,256}</regex>
              </constraint>
              <constraintErrorMessage>Description too long (limit 256 characters)</constraintErrorMessage>
            </properties>
          </leafNode>
          <!-- include end -->
          <!-- include start from firewall/default-log.xml.i -->
          <leafNode name="default-log">
            <properties>
              <help>Log packets hitting default-action</help>
              <valueless/>
            </properties>
          </leafNode>
          <!-- include end -->
          <!-- include start from generic-interface-multi-wildcard.xml.i -->
          <leafNode name="interface">
            <properties>
              <help>Interface to use</help>
              <completionHelp>
                <script>${vyos_completion_dir}/list_interfaces</script>
              </completionHelp>
              <valueHelp>
                <format>txt</format>
                <description>Interface name, wildcard (*) supported</description>
              </valueHelp>
              <constraint>
                <!-- include start from constraint/interface-name-with-wildcard.xml.i -->
                <regex>(bond|br|dum|en|ersp|eth|gnv|ifb|lan|l2tp|l2tpeth|macsec|peth|ppp|pppoe|pptp|sstp|tun|veth|vti|vtun|vxlan|wg|wlan|wwan)([0-9]?)(\*?)(.+)?|lo</regex>
                <validator name="file-path --lookup-path /sys/class/net --directory"/>
                <!-- include end -->
              </constraint>
              <multi/>
            </properties>
          </leafNode>
          <!-- include end -->
          <tagNode name="rule">
            <properties>
              <help>Policy rule number</help>
              <valueHelp>
                <format>u32:1-999999</format>
                <description>Number of policy rule</description>
              </valueHelp>
              <constraint>
                <validator name="numeric" argument="--range 1-999999"/>
              </constraint>
              <constraintErrorMessage>Policy rule number must be between 1 and 999999</constraintErrorMessage>
            </properties>
            <children>
              <node name="destination">
                <properties>
                  <help>Destination parameters</help>
                </properties>
                <children>
                  <!-- include start from firewall/address-ipv6.xml.i -->
                  <leafNode name="address">
                    <properties>
                      <help>IP address, subnet, or range</help>
                      <valueHelp>
                        <format>ipv6</format>
                        <description>IP address to match</description>
                      </valueHelp>
                      <valueHelp>
                        <format>ipv6net</format>
                        <description>Subnet to match</description>
                      </valueHelp>
                      <valueHelp>
                        <format>ipv6range</format>
                        <description>IP range to match</description>
                      </valueHelp>
                      <valueHelp>
                        <format>!ipv6</format>
                        <description>Match everything except the specified address</description>
                      </valueHelp>
                      <valueHelp>
                        <format>!ipv6net</format>
                        <description>Match everything except the specified prefix</description>
                      </valueHelp>
                      <valueHelp>
                        <format>!ipv6range</format>
                        <description>Match everything except the specified range</description>
                      </valueHelp>
                      <constraint>
                        <validator name="ipv6"/>
                        <validator name="ipv6-exclude"/>
                        <validator name="ipv6-range"/>
                        <validator name="ipv6-range-exclude"/>
                      </constraint>
                    </properties>
                  </leafNode>
                  <!-- include end -->
                  <!-- include start from firewall/source-destination-group-ipv6.xml.i -->
                  <node name="group">
                    <properties>
                      <help>Group</help>
                    </properties>
                    <children>
                      <leafNode name="address-group">
                        <properties>
                          <help>Group of addresses</help>
                          <completionHelp>
                            <path>firewall group ipv6-address-group</path>
                          </completionHelp>
                        </properties>
                      </leafNode>
                      <leafNode name="domain-group">
                        <properties>
                          <help>Group of domains</help>
                          <completionHelp>
                            <path>firewall group domain-group</path>
                          </completionHelp>
                        </properties>
                      </leafNode>
                      <!-- include start from firewall/mac-group.xml.i -->
                      <leafNode name="mac-group">
                        <properties>
                          <help>Group of MAC addresses</help>
                          <completionHelp>
                            <path>firewall group mac-group</path>
                          </completionHelp>
                        </properties>
                      </leafNode>
                      <!-- include start from firewall/mac-group.xml.i -->
                      <leafNode name="network-group">
                        <properties>
                          <help>Group of networks</help>
                          <completionHelp>
                            <path>firewall group ipv6-network-group</path>
                          </completionHelp>
                        </properties>
                      </leafNode>
                      <leafNode name="port-group">
                        <properties>
                          <help>Group of ports</help>
                          <completionHelp>
                            <path>firewall group port-group</path>
                          </completionHelp>
                        </properties>
                      </leafNode>
                    </children>
                  </node>
                  <!-- include end -->
                  <!-- include start from firewall/port.xml.i -->
                  <leafNode name="port">
                    <properties>
                      <help>Port</help>
                      <valueHelp>
                        <format>txt</format>
                        <description>Named port (any name in /etc/services, e.g., http)</description>
                      </valueHelp>
                      <valueHelp>
                        <format>u32:1-65535</format>
                        <description>Numbered port</description>
                      </valueHelp>
                      <valueHelp>
                        <format>&lt;start-end&gt;</format>
                        <description>Numbered port range (e.g. 1001-1005)</description>
                      </valueHelp>
                      <valueHelp>
                        <format> </format>
                        <description>\n\n  Multiple destination ports can be specified as a comma-separated list.\n  For example: 'telnet,http,123,1001-1005'</description>
                      </valueHelp>
                      <constraint>
                        <validator name="port-multi"/>
                      </constraint>
                    </properties>
                  </leafNode>
                  <!-- include end -->
                </children>
              </node>
              <node name="source">
                <properties>
                  <help>Source parameters</help>
                </properties>
                <children>
                  <!-- include start from firewall/address-ipv6.xml.i -->
                  <leafNode name="address">
                    <properties>
                      <help>IP address, subnet, or range</help>
                      <valueHelp>
                        <format>ipv6</format>
                        <description>IP address to match</description>
                      </valueHelp>
                      <valueHelp>
                        <format>ipv6net</format>
                        <description>Subnet to match</description>
                      </valueHelp>
                      <valueHelp>
                        <format>ipv6range</format>
                        <description>IP range to match</description>
                      </valueHelp>
                      <valueHelp>
                        <format>!ipv6</format>
                        <description>Match everything except the specified address</description>
                      </valueHelp>
                      <valueHelp>
                        <format>!ipv6net</format>
                        <description>Match everything except the specified prefix</description>
                      </valueHelp>
                      <valueHelp>
                        <format>!ipv6range</format>
                        <description>Match everything except the specified range</description>
                      </valueHelp>
                      <constraint>
                        <validator name="ipv6"/>
                        <validator name="ipv6-exclude"/>
                        <validator name="ipv6-range"/>
                        <validator name="ipv6-range-exclude"/>
                      </constraint>
                    </properties>
                  </leafNode>
                  <!-- include end -->
                  <!-- include start from firewall/source-destination-group-ipv6.xml.i -->
                  <node name="group">
                    <properties>
                      <help>Group</help>
                    </properties>
                    <children>
                      <leafNode name="address-group">
                        <properties>
                          <help>Group of addresses</help>
                          <completionHelp>
                            <path>firewall group ipv6-address-group</path>
                          </completionHelp>
                        </properties>
                      </leafNode>
                      <leafNode name="domain-group">
                        <properties>
                          <help>Group of domains</help>
                          <completionHelp>
                            <path>firewall group domain-group</path>
                          </completionHelp>
                        </properties>
                      </leafNode>
                      <!-- include start from firewall/mac-group.xml.i -->
                      <leafNode name="mac-group">
                        <properties>
                          <help>Group of MAC addresses</help>
                          <completionHelp>
                            <path>firewall group mac-group</path>
                          </completionHelp>
                        </properties>
                      </leafNode>
                      <!-- include start from firewall/mac-group.xml.i -->
                      <leafNode name="network-group">
                        <properties>
                          <help>Group of networks</help>
                          <completionHelp>
                            <path>firewall group ipv6-network-group</path>
                          </completionHelp>
                        </properties>
                      </leafNode>
                      <leafNode name="port-group">
                        <properties>
                          <help>Group of ports</help>
                          <completionHelp>
                            <path>firewall group port-group</path>
                          </completionHelp>
                        </properties>
                      </leafNode>
                    </children>
                  </node>
                  <!-- include end -->
                  <!-- include start from firewall/port.xml.i -->
                  <leafNode name="port">
                    <properties>
                      <help>Port</help>
                      <valueHelp>
                        <format>txt</format>
                        <description>Named port (any name in /etc/services, e.g., http)</description>
                      </valueHelp>
                      <valueHelp>
                        <format>u32:1-65535</format>
                        <description>Numbered port</description>
                      </valueHelp>
                      <valueHelp>
                        <format>&lt;start-end&gt;</format>
                        <description>Numbered port range (e.g. 1001-1005)</description>
                      </valueHelp>
                      <valueHelp>
                        <format> </format>
                        <description>\n\n  Multiple destination ports can be specified as a comma-separated list.\n  For example: 'telnet,http,123,1001-1005'</description>
                      </valueHelp>
                      <constraint>
                        <validator name="port-multi"/>
                      </constraint>
                    </properties>
                  </leafNode>
                  <!-- include end -->
                </children>
              </node>
              <!-- include start from policy/route-common.xml.i -->
              <!-- include start from policy/route-rule-action.xml.i -->
              <leafNode name="action">
                <properties>
                  <help>Rule action</help>
                  <completionHelp>
                    <list>accept reject return drop</list>
                  </completionHelp>
                  <valueHelp>
                    <format>accept</format>
                    <description>Accept matching entries</description>
                  </valueHelp>
                  <valueHelp>
                    <format>reject</format>
                    <description>Reject matching entries</description>
                  </valueHelp>
                  <valueHelp>
                    <format>return</format>
                    <description>Return from the current chain and continue at the next rule of the last chain</description>
                  </valueHelp>
                  <valueHelp>
                    <format>drop</format>
                    <description>Drop matching entries</description>
                  </valueHelp>
                  <constraint>
                    <regex>(accept|reject|return|drop)</regex>
                  </constraint>
                </properties>
              </leafNode>
              <!-- include end -->
              <!-- include start from generic-description.xml.i -->
              <leafNode name="description">
                <properties>
                  <help>Description</help>
                  <valueHelp>
                    <format>txt</format>
                    <description>Description</description>
                  </valueHelp>
                  <constraint>
                    <regex>[[:ascii:]]{0,256}</regex>
                  </constraint>
                  <constraintErrorMessage>Description too long (limit 256 characters)</constraintErrorMessage>
                </properties>
              </leafNode>
              <!-- include end -->
              <!-- include start from firewall/firewall-mark.xml.i -->
              <leafNode name="mark">
                <properties>
                  <help>Firewall mark</help>
                  <valueHelp>
                    <format>u32:0-2147483647</format>
                    <description>Firewall mark to match</description>
                  </valueHelp>
                  <valueHelp>
                    <format>!u32:0-2147483647</format>
                    <description>Inverted Firewall mark to match</description>
                  </valueHelp>
                  <valueHelp>
                    <format>&lt;start-end&gt;</format>
                    <description>Firewall mark range to match</description>
                  </valueHelp>
                  <valueHelp>
                    <format>!&lt;start-end&gt;</format>
                    <description>Firewall mark inverted range to match</description>
                  </valueHelp>
                  <constraint>
                    <validator name="numeric-exclude" argument="--allow-range --range 0-2147483647"/>
                  </constraint>
                </properties>
              </leafNode>
              <!-- include end -->
              <!-- include start from generic-disable-node.xml.i -->
              <leafNode name="disable">
                <properties>
                  <help>Disable instance</help>
                  <valueless/>
                </properties>
              </leafNode>
              <!-- include end -->
              <node name="fragment">
                <properties>
                  <help>IP fragment match</help>
                </properties>
                <children>
                  <leafNode name="match-frag">
                    <properties>
                      <help>Second and further fragments of fragmented packets</help>
                      <valueless/>
                    </properties>
                  </leafNode>
                  <leafNode name="match-non-frag">
                    <properties>
                      <help>Head fragments or unfragmented packets</help>
                      <valueless/>
                    </properties>
                  </leafNode>
                </children>
              </node>
              <node name="ipsec">
                <properties>
                  <help>Inbound IPsec packets</help>
                </properties>
                <children>
                  <leafNode name="match-ipsec">
                    <properties>
                      <help>Inbound IPsec packets</help>
                      <valueless/>
                    </properties>
                  </leafNode>
                  <leafNode name="match-none">
                    <properties>
                      <help>Inbound non-IPsec packets</help>
                      <valueless/>
                    </properties>
                  </leafNode>
                </children>
              </node>
              <node name="limit">
                <properties>
                  <help>Rate limit using a token bucket filter</help>
                </properties>
                <children>
                  <leafNode name="burst">
                    <properties>
                      <help>Maximum number of packets to allow in excess of rate</help>
                      <valueHelp>
                        <format>u32:0-4294967295</format>
                        <description>Maximum number of packets to allow in excess of rate</description>
                      </valueHelp>
                      <constraint>
                        <validator name="numeric" argument="--range 0-4294967295"/>
                      </constraint>
                    </properties>
                  </leafNode>
                  <leafNode name="rate">
                    <properties>
                      <help>Maximum average matching rate</help>
                      <valueHelp>
                        <format>u32:0-4294967295</format>
                        <description>Maximum average matching rate</description>
                      </valueHelp>
                      <constraint>
                        <validator name="numeric" argument="--range 0-4294967295"/>
                      </constraint>
                    </properties>
                  </leafNode>
                </children>
              </node>
              <!-- include start from firewall/log.xml.i -->
              <leafNode name="log">
                <properties>
                  <help>Log packets hitting this rule</help>
                  <valueless/>
                </properties>
              </leafNode>
              <!-- include end -->
              <leafNode name="protocol">
                <properties>
                  <help>Protocol to match (protocol name, number, or "all")</help>
                  <completionHelp>
                    <script>cat /etc/protocols | sed -e '/^#.*/d' | awk '{ print $1 }'</script>
                  </completionHelp>
                  <valueHelp>
                    <format>all</format>
                    <description>All IP protocols</description>
                  </valueHelp>
                  <valueHelp>
                    <format>tcp_udp</format>
                    <description>Both TCP and UDP</description>
                  </valueHelp>
                  <valueHelp>
                    <format>0-255</format>
                    <description>IP protocol number</description>
                  </valueHelp>
                  <valueHelp>
                    <format>!&lt;protocol&gt;</format>
                    <description>IP protocol number</description>
                  </valueHelp>
                  <constraint>
                    <validator name="ip-protocol"/>
                  </constraint>
                </properties>
                <defaultValue>all</defaultValue>
              </leafNode>
              <node name="recent">
                <properties>
                  <help>Parameters for matching recently seen sources</help>
                </properties>
                <children>
                  <leafNode name="count">
                    <properties>
                      <help>Source addresses seen more than N times</help>
                      <valueHelp>
                        <format>u32:1-255</format>
                        <description>Source addresses seen more than N times</description>
                      </valueHelp>
                      <constraint>
                        <validator name="numeric" argument="--range 1-255"/>
                      </constraint>
                    </properties>
                  </leafNode>
                  <leafNode name="time">
                    <properties>
                      <help>Source addresses seen in the last N seconds</help>
                      <valueHelp>
                        <format>u32:0-4294967295</format>
                        <description>Source addresses seen in the last N seconds</description>
                      </valueHelp>
                      <constraint>
                        <validator name="numeric" argument="--range 0-4294967295"/>
                      </constraint>
                    </properties>
                  </leafNode>
                </children>
              </node>
              <node name="set">
                <properties>
                  <help>Packet modifications</help>
                </properties>
                <children>
                  <leafNode name="connection-mark">
                    <properties>
                      <help>Connection marking</help>
                      <valueHelp>
                        <format>u32:0-2147483647</format>
                        <description>Connection marking</description>
                      </valueHelp>
                      <constraint>
                        <validator name="numeric" argument="--range 0-2147483647"/>
                      </constraint>
                    </properties>
                  </leafNode>
                  <leafNode name="dscp">
                    <properties>
                      <help>Packet Differentiated Services Codepoint (DSCP)</help>
                      <valueHelp>
                        <format>u32:0-63</format>
                        <description>DSCP number</description>
                      </valueHelp>
                      <constraint>
                        <validator name="numeric" argument="--range 0-63"/>
                      </constraint>
                    </properties>
                  </leafNode>
                  <leafNode name="mark">
                    <properties>
                      <help>Packet marking</help>
                      <valueHelp>
                        <format>u32:1-2147483647</format>
                        <description>Packet marking</description>
                      </valueHelp>
                      <constraint>
                        <validator name="numeric" argument="--range 1-2147483647"/>
                      </constraint>
                    </properties>
                  </leafNode>
                  <leafNode name="table">
                    <properties>
                      <help>Routing table to forward packet with</help>
                      <valueHelp>
                        <format>u32:1-200</format>
                        <description>Table number</description>
                      </valueHelp>
                      <valueHelp>
                        <format>main</format>
                        <description>Main table</description>
                      </valueHelp>
                      <constraint>
                        <validator name="numeric" argument="--range 1-200"/>
                        <regex>(main)</regex>
                      </constraint>
                      <completionHelp>
                        <list>main</list>
                        <path>protocols static table</path>
                      </completionHelp>
                    </properties>
                  </leafNode>
                  <leafNode name="tcp-mss">
                    <properties>
                      <help>TCP Maximum Segment Size</help>
                      <valueHelp>
                        <format>u32:500-1460</format>
                        <description>Explicitly set TCP MSS value</description>
                      </valueHelp>
                      <constraint>
                        <validator name="numeric" argument="--range 500-1460"/>
                      </constraint>
                    </properties>
                  </leafNode>
                </children>
              </node>
              <!-- include start from firewall/state.xml.i -->
              <leafNode name="state">
                <properties>
                  <help>Session state</help>
                  <completionHelp>
                    <list>established invalid new related</list>
                  </completionHelp>
                  <valueHelp>
                    <format>established</format>
                    <description>Established state</description>
                  </valueHelp>
                  <valueHelp>
                    <format>invalid</format>
                    <description>Invalid state</description>
                  </valueHelp>
                  <valueHelp>
                    <format>new</format>
                    <description>New state</description>
                  </valueHelp>
                  <valueHelp>
                    <format>related</format>
                    <description>Related state</description>
                  </valueHelp>
                  <constraint>
                    <regex>(established|invalid|new|related)</regex>
                  </constraint>
                  <multi/>
                </properties>
              </leafNode>
              <!-- include end -->
              <!-- include start from firewall/tcp-flags.xml.i -->
              <node name="tcp">
                <properties>
                  <help>TCP options to match</help>
                </properties>
                <children>
                  <node name="flags">
                    <properties>
                      <help>TCP flags to match</help>
                    </properties>
                    <children>
                      <leafNode name="syn">
                        <properties>
                          <help>Synchronise flag</help>
                          <valueless/>
                        </properties>
                      </leafNode>
                      <leafNode name="ack">
                        <properties>
                          <help>Acknowledge flag</help>
                          <valueless/>
                        </properties>
                      </leafNode>
                      <leafNode name="fin">
                        <properties>
                          <help>Finish flag</help>
                          <valueless/>
                        </properties>
                      </leafNode>
                      <leafNode name="rst">
                        <properties>
                          <help>Reset flag</help>
                          <valueless/>
                        </properties>
                      </leafNode>
                      <leafNode name="urg">
                        <properties>
                          <help>Urgent flag</help>
                          <valueless/>
                        </properties>
                      </leafNode>